/batch
/config,noeldb,1     ! force off writing results to database
*get,_wallstrt,active,,time,wall
! ANSYS input file written by Workbench version 2026 R1
! File used for geometry attach: C:\Users\tejas\AppData\Local\Temp\WB_tejas_23920_2\wbnew_files\dp0\SYS-1\DM\SYS-1.dsco
/title,wbnew--Steady-State Thermal (B5)
! ****** Begin Custom Load Command Snippet ******
/COM, ACT Extensions:
/COM,     LSDYNA, 2026.1
/COM,     5f463412-bd3e-484b-87e7-cbc0a665e474, wbex
/COM,     ANSYSMotion, 2026.1
/COM,     20180725-3f81-49eb-9f31-41364844c769, wbex
! ****** End   Custom Load Command Snippet ******
*DIM,_wb_ProjectScratch_dir,string,248
_wb_ProjectScratch_dir(1) = 'C:\Users\tejas\AppData\Local\Temp\WB_tejas_23920_2\_ProjectScratch\Scr8BDF\'
*DIM,_wb_SolverFiles_dir,string,248
_wb_SolverFiles_dir(1) = 'C:\Users\tejas\AppData\Local\Temp\WB_tejas_23920_2\wbnew_files\dp0\SYS-1\MECH\'
*DIM,_wb_userfiles_dir,string,248
_wb_userfiles_dir(1) = 'C:\Users\tejas\AppData\Local\Temp\WB_tejas_23920_2\wbnew_files\user_files\'
/com,--- Data in consistent MKS units. See Solving Units in the help system for more information.
/units,MKS
/nopr
/wb,file,start              !  signify a WB generated input file
/prep7
! Turn off shape checking because checks already performed inside WB mesher.
! See help system for more information.
SHPP,OFF,,NOWARN
/nolist
etcon,set             ! allow ANSYS to choose best KEYOP's for 180x elements, resets any applicable keyopt to MAPDL defaults
/com,*********** Send User Defined Coordinate System(s) ***********
csys,0
/com,*********** Nodes for the whole assembly ***********
nblock,3,,8035
(1i9,3e20.9e3)
        1     1.500000000E-03     2.500000000E-02     5.500000000E-02
        2     2.000000000E-02     2.500000000E-02     5.500000000E-02
        3    -2.220446049E-19     2.350000000E-02     5.500000000E-02
        4     4.393398282E-04     2.456066017E-02     5.500000000E-02
        5    -2.220446049E-19     1.500000000E-03     5.500000000E-02
        6     1.500000000E-03    -2.220446049E-19     5.500000000E-02
        7     4.393398282E-04     4.393398282E-04     5.500000000E-02
        8     2.150000000E-02    -2.220446049E-19     5.500000000E-02
        9     2.000000000E-02     1.500000000E-03     5.500000000E-02
       10     2.043933983E-02     4.393398282E-04     5.500000000E-02
       11    -2.220446049E-19     1.500000000E-03     0.000000000E+00
       12     1.500000000E-03    -2.220446049E-19     0.000000000E+00
       13     4.393398282E-04     4.393398282E-04     0.000000000E+00
       14    -2.220446049E-19     2.350000000E-02     0.000000000E+00
       15     1.500000000E-03     2.500000000E-02     0.000000000E+00
       16     4.393398282E-04     2.456066017E-02     0.000000000E+00
       17     1.515000000E-01     2.500000000E-02     7.500000000E-03
       18     1.500000000E-01     2.350000000E-02     7.500000000E-03
       19     1.504393398E-01     2.456066017E-02     7.500000000E-03
       20     1.500000000E-01     2.350000000E-02     4.750000000E-02
! ... 7286 like lines cut
/wb,elem,start            !  set before creation of elements
/com,*********** Elements for Body 1 'SYS-1\Open CASCADE STEP translator 7.9 1' ***********
et,1,291
MAT,1 $ TYPE,1 $ REAL,1 $ SECNUM,1 $ ESYS,0    ! ELEMNODES = 10
eblock,21,COMPACT,,3847
(21i9)
        1      223     1039     1118     1115     2831     6974     2833     2832     6973     7154
        2      239     1118      241      837     2964     2990     2958     2961     6240     2988
        3      223      837      240     1118     2828     2972     2824     2833     6240     2977
        4      240     1118      837      241     2977     6240     2972     2969     2990     2988
        5      760     1117      764      770     5874     5903     5864     5866     5943     5899
        6      764      770     1117     1064     5899     5943     5903     5900     5942     7060
        7      370     1117      770     1064     3921     5943     3918     3920     7060     5942
        8      111     1117      770      370     2051     5943     2049     2045     3921     3918
        9      760      770      771     1117     5866     5941     5867     5874     5943     5945
       10      111     1117      370      459     2051     3921     2045     2046     4466     3916
       11      111     1117      771      770     2051     5945     2050     2049     5943     5941
       12      760     1117     1060     1112     5874     7046     5871     5873     7152     7045
       13      760     1117      771     1060     5874     5945     5867     5871     7046     5944
       14      133      771     1117     1060     2174     5945     2177     2176     5944     7046
       15      111     1117      133      771     2051     2177     2044     2050     5945     2174
       16      612     1115      987     1039     5283     6791     5281     5282     6973     6787
       17      231      612     1115      987     2891     5283     2895     2894     5281     6791
       18      223     1115      612     1039     2832     5283     2825     2831     6973     5282
       19      223      231      612     1115     2823     2891     2825     2832     2895     5283
       20      570      572     1114     1043     5066     5084     5071     5070     5083     6983
! ... 3828 like lines cut
secnum,1    ! reset the section ID to default
! Material Id = {CDAC717E-E9EA-41BC-AC25-C0A0DF14029C}
/wb,elem,end               !  done creating elements
toffst,273.15,      ! Temperature offset from absolute zero
/wb,mat,start              !  starting to send materials
/com,*********** Send Materials ***********
Temperature = 'TEMP' ! Temperature
MP,DENS,1,7850,	! kg m^-3
MP,ALPX,1,1.2e-05,	! C^-1
MP,C,1,434,	! J kg^-1 C^-1
MP,KXX,1,60.5,	! W m^-1 C^-1
MP,RSVX,1,1.7e-07,	! kg m^3 A^-2 s^-3
MP,EX,1,200000000000,	! Pa
MP,NUXY,1,0.3,
MP,MURX,1,10000,
MP,UVID,1,a11b0d8e-cc0f-407c-b869-83117b270b32
MP,UMID,1,59002a79-71c2-428e-906b-55d7dbee100e

/wb,mat,end                !  done sending materials
!************************* Model Summary ********************
! SYS-1\Open CASCADE STEP translator 7.9 1,	Structural Steel,	matid,	1
!************************* End Model Summary ********************
! get the diagonal of the bounding box. Needed later for other things
*get,_xmin,node,,mnloc,x
*get,_ymin,node,,mnloc,y
*get,_zmin,node,,mnloc,z
*get,_xmax,node,,mxloc,x
*get,_ymax,node,,mxloc,y
*get,_zmax,node,,mxloc,z
_ASMDIAG=(_xmax-_xmin)*(_xmax-_xmin)+(_ymax-_ymin)*(_ymax-_ymin)+(_zmax-_zmin)*(_zmax-_zmin)
_ASMDIAG=SQRT(_ASMDIAG)
/wb,contact,start          !  starting to send contact
/wb,contact,end            !  done creating contacts
/golist
/wb,load,start             !  starting to send loads
/com,*********** Create "Heat Flux" ***********
et,2,152
MAT,2 $ TYPE,2 $ REAL,2 $ SECNUM,2 $ ESYS,0    ! ELEMNODES = 8
eblock,21,COMPACT,,6
(21i9)
     5850     1215      176     1200     1200     2433     2432     1200     7297
     5851      181     1223        2        2     2473     1246        2     1235
     5852        2     1223     1227     1227     1246     7305     1227     1247
     5853      176       40     1200     1200     1582     1604     1200     2432
     5854     1223     1215     1200     1200     7303     7297     1200     7299
     5855     1223     1200     1227     1227     7299     7300     1227     7305
-1
secnum,1    ! reset the section ID to default
esel,s,type,,2
keyop,2,8,1         ! include heat flux
esel,all
fcum,add                   ! add nodal forces up (needed in case have loads on the same edge,vertex)
fcum                       ! reset default on fcum command since done sending WB F loads
/com,*********** Create "Convection" ***********
et,3,152
MAT,3 $ TYPE,3 $ REAL,3 $ SECNUM,3 $ ESYS,0    ! ELEMNODES = 8
eblock,21,COMPACT,,684
(21i9)
     5856      357      692      942      942     3834     5646      942     3837
     5857      527      528      942      942     4843     4853      942     4847
     5858      172      173      693      693     2393     2403      693     2396
     5859      171      524      692      692     2388     4826      692     2389
     5860      171      693      173      173     2390     2403      173     2386
     5861      177      178      526      526     2434     2441      526     2436
     5862      524      942      692      692     4827     5646      692     4826
     5863      525      526      943      943     4834     4841      943     4837
     5864      526      178      943      943     2441     2445      943     4841
     5865      527      943      529      529     4848     4857      529     4844
     5866      527      942      943      943     4847     6610      943     4848
     5867      523      942      524      524     4818     4827      524     4816
     5868      357      942      694      694     3837     5653      694     3835
     5869      171      692      693      693     2389     5644      693     2390
     5870      528      694      942      942     4851     5653      942     4853
     5871      176      525      523      523     2419     4817      523     2418
     5872      528      695      694      694     4852     5651      694     4851
     5873      523      525      943      943     4817     4837      943     4819
     5874      174      695      528      528     2410     4852      528     2407
     5875      178      529      943      943     2442     4857      943     2445
! ... 665 like lines cut
secnum,1    ! reset the section ID to default
esel,s,type,,3
keyop,3,8,2
keyop,3,13,0
esel,all
/com,***************** Define Uniform Initial temperature ***************
tunif,22.
/gst,on,on
fini
*get,_numnode,node,0,count
*get,_numelem,elem,0,count
*get, _MAXELEMNUM, elem, 0, NUM, MAX
*get, _MAXNODENUM, node, 0, NUM, MAX
*get, _MAXELEMTYPE, etyp, 0, NUM, MAX
*get, _MAXREALCONST, rcon, 0, NUM, MAX
/go
/wb,load,end               !  done creating loads
/com,--- Number of total nodes = %_numnode%
/com,--- Number of contact elements = 690
/com,--- Number of spring elements = 0
/com,--- Number of bearing elements = 0
/com,--- Number of solid elements = 3847
/com,--- Number of condensed parts = 0
/com,--- Number of total elements = %_numelem%
*get,_wallbsol,active,,time,wall
/com,****************************************************************************
/com,*************************    SOLUTION       ********************************
/com,****************************************************************************
/solu
antype,0                   ! static analysis
!eqsl,sparse               ! using sparse solver which is default so no eqsl command needed
cntr,print,1               ! print out contact info and also make no initial contact an error
cncheck,dmp		!	Enable program controlled contact splitting for distributed memory parallel run
rescontrol,,none                 ! Do not keep any restart files
dmpoption,emat,no             ! Don't combine emat file for DANSYS
dmpoption,esav,no             ! Don't combine esav file for DANSYS
/com,****************************************************
/com,******************* SOLVE FOR LS 1 OF 1 ****************
esel,s,type,,2
nsle
sf,all,hflux,200000.
nsel,all
esel,all
esel,s,type,,3
nsle
sf,all,conv,50.,25.
nsel,all
esel,all
/nopr
/gopr
autots,on
nsub,1,10,1
time,1.
outres,erase
outres,all,none
outres,nsol,all
outres,rsol,all
outres,eangl,all
outres,veng,all
outres,fflux,all,
outres,cont,all,
/nopr
esel,s,type,,3
cm,_elmisc,elem
esel,all
/gopr
outres,misc,all,_elmisc
cnvtol,heat,,1.e-003,,1.e-006 ! Program Controlled. Set MINREF equivalent of 1e-6 Watts
! *********** WB SOLVE COMMAND ***********
! check interactive state
*get,ANSINTER_,active,,int
*if,ANSINTER_,ne,0,then
/eof
*endif
solve
/com *************** Write FE CONNECTORS ********* 
CEWRITE,file,ce,,INTE
/com,****************************************************
/com,*************** FINISHED SOLVE FOR LS 1 *************
fini
*get,_wallasol,active,,time,wall
/post1
xmlo,ENCODING,ISO-8859-1
xmlo,parm
/xml,parm,xml
fini
/gopr
*get,_walldone,active,,time,wall
_preptime=(_wallbsol-_wallstrt)*3600
_solvtime=(_wallasol-_wallbsol)*3600
_posttime=(_walldone-_wallasol)*3600
_totaltim=(_walldone-_wallstrt)*3600
*get,_dlbratio,active,0,solu,dlbr
*get,_combtime,active,0,solu,comb
*get,_ssmode,active,0,solu,ssmm
*get,_ndofs,active,0,solu,ndof
/fclean				!clean distributed files
/com,--- Total number of nodes = %_numnode%
/com,--- Total number of elements = %_numelem%
/com,--- Element load balance ratio = %_dlbratio%
/com,--- Time to combine distributed files = %_combtime%
/com,--- Sparse memory mode = %_ssmode%
/com,--- Number of DOF = %_ndofs%
/wb,file,end               ! done with WB generated input
