/batch
/config,noeldb,1     ! force off writing results to database
*get,_wallstrt,active,,time,wall
! ANSYS input file written by Workbench version 2026 R1
! File used for geometry attach: C:\Users\tejas\AppData\Local\Temp\WB_tejas_23920_2\wbnew_files\dp0\SYS\DM\SYS.dsco
/title,wbnew--Static Structural (A5)
! ****** Begin Custom Load Command Snippet ******
/COM, ACT Extensions:
/COM,     LSDYNA, 2026.1
/COM,     5f463412-bd3e-484b-87e7-cbc0a665e474, wbex
/COM,     ANSYSMotion, 2026.1
/COM,     20180725-3f81-49eb-9f31-41364844c769, wbex
! ****** End   Custom Load Command Snippet ******
*DIM,_wb_ProjectScratch_dir,string,248
_wb_ProjectScratch_dir(1) = 'C:\Users\tejas\AppData\Local\Temp\WB_tejas_23920_2\_ProjectScratch\Scr365F\'
*DIM,_wb_SolverFiles_dir,string,248
_wb_SolverFiles_dir(1) = 'C:\Users\tejas\AppData\Local\Temp\WB_tejas_23920_2\wbnew_files\dp0\SYS\MECH\'
*DIM,_wb_userfiles_dir,string,248
_wb_userfiles_dir(1) = 'C:\Users\tejas\AppData\Local\Temp\WB_tejas_23920_2\wbnew_files\user_files\'
/com,--- Data in consistent MKS units. See Solving Units in the help system for more information.
/units,MKS
/nopr
/wb,file,start              !  signify a WB generated input file
/prep7
! Turn off shape checking because checks already performed inside WB mesher.
! See help system for more information.
SHPP,OFF,,NOWARN
/nolist
etcon,set             ! allow ANSYS to choose best KEYOP's for 180x elements, resets any applicable keyopt to MAPDL defaults
/com,*********** Send User Defined Coordinate System(s) ***********
csys,0
/com,*********** Nodes for the whole assembly ***********
nblock,3,,17080
(1i9,3e20.9e3)
        1     1.500000000E-03     2.500000000E-02     5.500000000E-02
        2     2.000000000E-02     2.500000000E-02     5.500000000E-02
        3     1.075000000E-02     2.500000000E-02     5.500000000E-02
        4    -2.220446049E-19     2.350000000E-02     5.500000000E-02
        5     4.393398282E-04     2.456066017E-02     5.500000000E-02
        6    -2.220446049E-19     1.500000000E-03     5.500000000E-02
        7    -2.220446049E-19     8.833333333E-03     5.500000000E-02
        8    -2.220446049E-19     1.616666667E-02     5.500000000E-02
        9     1.500000000E-03    -2.220446049E-19     5.500000000E-02
       10     4.393398282E-04     4.393398282E-04     5.500000000E-02
       11     2.150000000E-02    -2.220446049E-19     5.500000000E-02
       12     1.150000000E-02    -2.220446049E-19     5.500000000E-02
       13     2.000000000E-02     1.500000000E-03     5.500000000E-02
       14     2.043933983E-02     4.393398282E-04     5.500000000E-02
       15     2.000000000E-02     9.333333333E-03     5.500000000E-02
       16     2.000000000E-02     1.716666667E-02     5.500000000E-02
       17    -2.220446049E-19     1.500000000E-03     0.000000000E+00
       18     1.500000000E-03    -2.220446049E-19     0.000000000E+00
       19     4.393398282E-04     4.393398282E-04     0.000000000E+00
       20     1.500000000E-03    -2.220446049E-19     9.166666667E-03
! ... 15509 like lines cut
/wb,elem,start            !  set before creation of elements
/com,*********** Elements for Body 1 'SYS\Open CASCADE STEP translator 7.9 1' ***********
et,1,187
MAT,1 $ TYPE,1 $ REAL,1 $ SECNUM,1 $ ESYS,0    ! ELEMNODES = 10
eblock,21,COMPACT,,8263
(21i9)
        1      706     2105     2567     2436     7489    14308     7499     7496    14305    15455
        2     1728     2567     2105     2436    12790    14308    12785    12789    15455    14305
        3      547     2567     1787     1320     6360    13074     6353     6349    10847    10840
        4     1320     1387     2567     2457    10838    11156    10847    10846    11155    15481
        5      706     2567     2151     2436     7499    14521     7491     7496    15455    14517
        6      706     2151     2567     2199     7491    14521     7499     7492    14513    14760
        7     1728     2325     2567     2436    12786    15189    12790    12789    15187    15455
        8      547     1787     2567     2560     6353    13074     6360     6359    13073    15528
        9      547     2567     2199     2560     6360    14760     6358     6359    15528    14759
       10     1320     2567     1787     2325    10847    13074    10840    10844    15189    13072
       11     1320     2567     2151     2457    10847    14521    10843    10846    15481    14518
       12     2151     2567     2325     2436    14521    15189    14514    14517    15455    15187
       13     1787     2325     2567     2560    13072    15189    13074    13073    15188    15528
       14     1320     2151     2567     2325    10843    14521    10847    10844    14514    15189
       15      276     1833     2566     1104     4628    13183     4629     4625     9752     9755
       16      276     1101     2566     1833     4624     9739     4629     4628     9737    13183
       17      301     2566     1118     2548     4740     9819     4734     4739    15527     9818
       18      273      301     2566     1118     4601     4740     4607     4604     4734     9819
       19      252      276     2566     1104     4427     4629     4435     4429     4625     9755
       20      301     2386     2566     2548     4738    15362     4740     4739    15361    15527
! ... 8244 like lines cut
secnum,1    ! reset the section ID to default
! Material Id = {ACAAB857-D44F-4DC6-B316-5C074443A14E}
/wb,elem,end               !  done creating elements
toffst,273.15,      ! Temperature offset from absolute zero
/com,*********** Set Reference Temperature ***********
tref,22.
/wb,mat,start              !  starting to send materials
/com,*********** Send Materials ***********
Temperature = 'TEMP' ! Temperature
MP,DENS,1,7850,	! kg m^-3
MP,ALPX,1,1.2e-05,	! C^-1
MP,C,1,434,	! J kg^-1 C^-1
MP,KXX,1,60.5,	! W m^-1 C^-1
MP,RSVX,1,1.7e-07,	! kg m^3 A^-2 s^-3
MP,EX,1,200000000000,	! Pa
MP,NUXY,1,0.3,
MP,MURX,1,10000,
MP,UVID,1,030f9a0c-dc06-4b5d-b752-db81882fb51c
MP,UMID,1,59002a79-71c2-428e-906b-55d7dbee100e

/wb,mat,end                !  done sending materials
!************************* Model Summary ********************
! SYS\Open CASCADE STEP translator 7.9 1,	Structural Steel,	matid,	1
!************************* End Model Summary ********************
! get the diagonal of the bounding box. Needed later for other things
*get,_xmin,node,,mnloc,x
*get,_ymin,node,,mnloc,y
*get,_zmin,node,,mnloc,z
*get,_xmax,node,,mxloc,x
*get,_ymax,node,,mxloc,y
*get,_zmax,node,,mxloc,z
_ASMDIAG=(_xmax-_xmin)*(_xmax-_xmin)+(_ymax-_ymin)*(_ymax-_ymin)+(_zmax-_zmin)*(_zmax-_zmin)
_ASMDIAG=SQRT(_ASMDIAG)
/wb,contact,start          !  starting to send contact
/wb,contact,end            !  done creating contacts
/golist
/wb,load,start             !  starting to send loads
/com,*********** Fixed Supports ***********
CMBLOCK,_FIXEDSU,NODE,      105
(8i10)
       544      -556       570      -582      1319     -1334      2094     -2102
      2574      6296      6297      6311      6312      6320      6328      6334
      6335      6342      6349      6350      6356      6357      6362      6363
      6368      6370      6372      6377      6379      6386      6388      6389
      6395      6398      6400      6406      6409      6410      6412      6415
      6416      6422      6423      6425      6426      6432      6437      6444
      6533      6534      6541      6543      6550      6551      6555      6561
      6566      6567      6571      6573      6574      6578      6579      6584
      6585      6589      6594      6598      6608      6615      6623      6624
      6633      6634      6638      6644      6645      6650      6651      6656
      6657      6660      6662      6665      6670      6678      6679     10831
     10842     10852     10859     10864     10869     10876     10885     10892
     10901     10912     10923     10930     10940     10949     10952     14276
    -14289
cmsel,s,_FIXEDSU
d,all,all
nsel,all
/com,*********** Define Force Using Surface Effect Elements ***********
local,12,0,0.,0.,0.,0.,0.,0.
csys,0
et,2,154
MAT,2 $ TYPE,2 $ REAL,2 $ SECNUM,2 $ ESYS,12    ! ELEMNODES = 8
eblock,21,COMPACT,,30
(21i9)
    12484      141      712      142      142     3682     3690      142     3678
    12485      137      707      138      138     3632     3644      138     3630
    12486      458      706      462      462     5718     5753      462     5715
    12487      139      710      140      140     3658     3670      140     3654
    12488      145      716      146      146     3723     3737      146     3719
    12489      137      706      707      707     3631     7485      707     3632
    12490      144      714      715      715     3713     7551      715     3714
    12491      143      713      714      714     3702     7545      714     3703
    12492      146      716      147      147     3737     3748      147     3736
    12493      140      710      711      711     3670     7526      711     3671
    12494      139      709      710      710     3657     7521      710     3658
    12495      141      711      712      712     3681     7532      712     3682
    12496      136      706      137      137     3618     3631      137     3615
    12497      461      462      136      136     5751     3617      136     3616
    12498      142      712      713      713     3690     7540      713     3691
    12499      142      713      143      143     3691     3702      143     3688
    12500      144      715      145      145     3714     3722      145     3712
    12501      138      707      708      708     3644     7500      708     3645
    12502      136      462      706      706     3617     5753      706     3618
    12503      140      711      141      141     3671     3681      141     3666
! ... 11 like lines cut
secnum,1    ! reset the section ID to default
esel,s,type,,2
keyop,2,2,1         ! Apply load in local coordinate system
keyop,2,7,1         ! Use original area so load is constant in large deformation
esel,all
/gst,on,on
fini
*get,_numnode,node,0,count
*get,_numelem,elem,0,count
*get, _MAXELEMNUM, elem, 0, NUM, MAX
*get, _MAXNODENUM, node, 0, NUM, MAX
*get, _MAXELEMTYPE, etyp, 0, NUM, MAX
*get, _MAXREALCONST, rcon, 0, NUM, MAX
/go
/wb,load,end               !  done creating loads
/com,--- Number of total nodes = %_numnode%
/com,--- Number of contact elements = 30
/com,--- Number of spring elements = 0
/com,--- Number of bearing elements = 0
/com,--- Number of solid elements = 8263
/com,--- Number of condensed parts = 0
/com,--- Number of total elements = %_numelem%
*get,_wallbsol,active,,time,wall
/com,****************************************************************************
/com,*************************    SOLUTION       ********************************
/com,****************************************************************************
/solu
antype,0                   ! static analysis
_thickRatio=  1     ! Ratio of thick parts in the model
eqsl,pcg,1e-8,,,,,,1
cntr,print,1               ! print out contact info and also make no initial contact an error
cncheck,dmp		!	Enable program controlled contact splitting for distributed memory parallel run
dmpoption,emat,no             ! Don't combine emat file for DANSYS
dmpoption,esav,no             ! Don't combine esav file for DANSYS
nldiag,cont,iter           ! print out contact info each equilibrium iteration
rescontrol,,none                 ! Do not keep any restart files
/com,****************************************************
/com,******************* SOLVE FOR LS 1 OF 1 ****************
esel,s,type,,2
nsle
sfe,all,1,pres,1,0.
sfe,all,2,pres,1,0.
sfe,all,3,pres,1,-297619.047618958
nsel,all
esel,all
/nopr
/gopr
nsub,1,1,1
time,1.
outres,erase
outres,all,none
outres,nsol,all,
outres,rsol,all
outres,eangl,all
outres,etmp,all
outres,veng,all
outres,strs,all,
outres,epel,all,
outres,eppl,all,
outres,cont,all,
! *********** WB SOLVE COMMAND ***********
! check interactive state
*get,ANSINTER_,active,,int
*if,ANSINTER_,ne,0,then
/eof
*endif
solve
/com *************** Write FE CONNECTORS ********* 
CEWRITE,file,ce,,INTE
/com,****************************************************
/com,*************** FINISHED SOLVE FOR LS 1 *************
fini
*get,_wallasol,active,,time,wall
/nopr
*get,_numnode,node,0,count
*get,_numelem,elem,0,count
*get, _MAXELEMNUM, elem, 0, NUM, MAX
*get, _MAXNODENUM, node, 0, NUM, MAX,,,INTERNAL
*get, _MAXELEMTYPE, etyp, 0, NUM, MAX
*get, _MAXREALCONST, rcon, 0, NUM, MAX
*get,_NSOLTHREADS,active,0,ntfs
*get,_NSOLPROCESSES,active,0,npfs
/gopr
*get,_PCGITER,active,,solu,cgiter
/post1
xmlo,ENCODING,ISO-8859-1
xmlo,parm
/xml,parm,xml
fini
/gopr
*get,_walldone,active,,time,wall
_preptime=(_wallbsol-_wallstrt)*3600
_solvtime=(_wallasol-_wallbsol)*3600
_posttime=(_walldone-_wallasol)*3600
_totaltim=(_walldone-_wallstrt)*3600
*get,_dlbratio,active,0,solu,dlbr
*get,_combtime,active,0,solu,comb
*get,_ssmode,active,0,solu,ssmm
*get,_ndofs,active,0,solu,ndof
*get,_sol_end_time,active,0,set,time
*if,_sol_end_time,eq,1.000000,then
/fclean				!clean distributed files
*endif
/com,--- Total number of nodes = %_numnode%
/com,--- Total number of elements = %_numelem%
/com,--- Element load balance ratio = %_dlbratio%
/com,--- Time to combine distributed files = %_combtime%
/com,--- Sparse memory mode = %_ssmode%
/com,--- Number of DOF = %_ndofs%
/wb,file,end               ! done with WB generated input
